<configuration>

<input>
    <net-file value="../network/network.net.xml"/>
    <route-files value="../routes/traffic.rou.xml"/>
</input>

<time>
    <begin value="0"/>
    <end value="6000"/>
</time>

</configuration>